/*--------------------------------*- C++ -*----------------------------------*\
| =========                 |                                                 |
| \\      /  F ield         | OpenFOAM: The Open Source CFD Toolbox           |
|  \\    /   O peration     | Version:  1.6                                   |
|   \\  /    A nd           | Web:      www.OpenFOAM.org                      |
|    \\/     M anipulation  |                                                 |
\*---------------------------------------------------------------------------*/
FoamFile
{
    version     2.0;
    format      ascii;
    class       dictionary;
    location    "system";
    object      fvSolution;
}
// * * * * * * * * * * * * * * * * * * * * * * * * * * * * * * * * * * * * * //

solvers
{
    rho
    {
        solver          diagonal;
    }
   
    U
    {
	solver		PBiCG;
        preconditioner   DILU;
        tolerance        1e-06;
        relTol           0;
    }
    
    fH
    {
	solver		PBiCG;
        preconditioner   DILU;
        tolerance        1e-06;
        relTol           0;
    }
    b
    {
	solver		PBiCG;
        preconditioner   DILU;
        tolerance        1e-06;
        relTol           0;
    }
    h
    {
	solver		PBiCG;
        preconditioner   DILU;
        tolerance        1e-06;
        relTol           0;
    }
    hu
    {
	solver		PBiCG;
        preconditioner   DILU;
        tolerance        1e-06;
        relTol           0;
    }
    
    p
    {
	solver		PBiCG;
        preconditioner   DILU;
        tolerance        1e-06;
        relTol           0;
    }
/*
    Xi
    {
        solver          smoothSolver;
        smoother        GaussSeidel;
        nSweeps         2;
        tolerance       1e-09;
        relTol          0.01;
    }
*/
    Xi
    {
	solver		PBiCG;
        preconditioner   DILU;
        tolerance        1e-06;
        relTol           0;
    }
    k
    {
	solver		PBiCG;
        preconditioner   DILU;
        tolerance        1e-06;
        relTol           0;
    };
    epsilon
    {
	solver		PBiCG;
        preconditioner   DILU;
        tolerance        1e-06;
        relTol           0;
    };
    omega
    {
	solver		PBiCG;
        preconditioner   DILU;
        tolerance        1e-06;
        relTol           0;
    };
    
}


PISO
{
    nCorrectors     3;
    nNonOrthogonalCorrectors 0;
    nOuterCorrectors 1;
    transonic true;
}

