/*--------------------------------*- C++ -*---------------------------------*\
| =========                |                                                 |
| \      /  F ield         | OpenFOAM: The Open Source CFD Toolbox           |
|  \    /   O peration     | Version:  1.7.1                                 |
|   \  /    A nd           | Web:      www.OpenFOAM.com                      |
|    \/     M anipulation  |                                                 |
\*--------------------------------------------------------------------------*/

FoamFile
{
version     2.0;
format      ascii;
class       dictionary;
location    "constant";
object      LOG_tignTable_fpT_09;
}
// * * * * * * * * * * * * * * * * * * * * * * * * * * * * * * * * * * * * * //

// created with Z:\Cantera\lookuptauTable\lookuptIgn_06.m
// OConaire mechanism 

options
{
	logarithmic true;
}

fields
3
(

 {
     name            fH;
     min             0.00071; // xH2=0.010
     max             0.09487; // xH2=0.600
     N               7;
 }

 {
     name            p;
     min             1.000e+004;
     max             1.000e+007;
     N               10;
 }

 {
     name            T;
     min             800.0;
     max             2000.0;
     N               60;
 }
);


output
1
(
 {    name 	 tIgn; }
)
;

values
4
(

5368  // fH
( 
0.00071 
0.00071 
0.00071 
0.00071 
0.00071 
0.00071 
0.00071 
0.00071 
0.00071 
0.00071 
0.00071 
0.00071 
0.00071 
0.00071 
0.00071 
0.00071 
0.00071 
0.00071 
0.00071 
0.00071 
0.00071 
0.00071 
0.00071 
0.00071 
0.00071 
0.00071 
0.00071 
0.00071 
0.00071 
0.00071 
0.00071 
0.00071 
0.00071 
0.00071 
0.00071 
0.00071 
0.00071 
0.00071 
0.00071 
0.00071 
0.00071 
0.00071 
0.00071 
0.00071 
0.00071 
0.00071 
0.00071 
0.00071 
0.00071 
0.00071 
0.00071 
0.00071 
0.00071 
0.00071 
0.00071 
0.00071 
0.00071 
0.00071 
0.00071 
0.00071 
0.00071 
0.00071 
0.00071 
0.00071 
0.00071 
0.00071 
0.00071 
0.00071 
0.00071 
0.00071 
0.00071 
0.00071 
0.00071 
0.00071 
0.00071 
0.00071 
0.00071 
0.00071 
0.00071 
0.00071 
0.00071 
0.00071 
0.00071 
0.00071 
0.00071 
0.00071 
0.00071 
0.00071 
0.00071 
0.00071 
0.00071 
0.00071 
0.00071 
0.00071 
0.00071 
0.00071 
0.00071 
0.00071 
0.00071 
0.00071 
0.00071 
0.00071 
0.00071 
0.00071 
0.00071 
0.00071 
0.00071 
0.00071 
0.00071 
0.00071 
0.00071 
0.00071 
0.00071 
0.00071 
0.00071 
0.00071 
0.00071 
0.00071 
0.00071 
0.00071 
0.00071 
0.00071 
0.00071 
0.00071 
0.00071 
0.00071 
0.00071 
0.00071 
0.00071 
0.00071 
0.00071 
0.00071 
0.00071 
0.00071 
0.00071 
0.00071 
0.00071 
0.00071 
0.00071 
0.00071 
0.00071 
0.00071 
0.00071 
0.00071 
0.00071 
0.00071 
0.00071 
0.00071 
0.00071 
0.00071 
0.00071 
0.00071 
0.00071 
0.00071 
0.00071 
0.00071 
0.00071 
0.00071 
0.00071 
0.00071 
0.00071 
0.00071 
0.00071 
0.00071 
0.00071 
0.00071 
0.00071 
0.00071 
0.00071 
0.00071 
0.00071 
0.00071 
0.00071 
0.00071 
0.00071 
0.00071 
0.00071 
0.00071 
0.00071 
0.00071 
0.00071 
0.00071 
0.00071 
0.00071 
0.00071 
0.00071 
0.00071 
0.00071 
0.00071 
0.00071 
0.00071 
0.00071 
0.00071 
0.00071 
0.00071 
0.00071 
0.00071 
0.00071 
0.00071 
0.00071 
0.00071 
0.00071 
0.00071 
0.00071 
0.00071 
0.00071 
0.00071 
0.00071 
0.00071 
0.00071 
0.00071 
0.00071 
0.00071 
0.00071 
0.00071 
0.00071 
0.00071 
0.00071 
0.00071 
0.00071 
0.00071 
0.00071 
0.00071 
0.00071 
0.00071 
0.00071 
0.00071 
0.00071 
0.00071 
0.00071 
0.00071 
0.00071 
0.00071 
0.00071 
0.00071 
0.00071 
0.00071 
0.00071 
0.00071 
0.00071 
0.00071 
0.00071 
0.00071 
0.00071 
0.00071 
0.00071 
0.00071 
0.00071 
0.00071 
0.00071 
0.00071 
0.00071 
0.00071 
0.00071 
0.00071 
0.00071 
0.00071 
0.00071 
0.00071 
0.00071 
0.00071 
0.00071 
0.00071 
0.00071 
0.00071 
0.00071 
0.00071 
0.00071 
0.00071 
0.00071 
0.00071 
0.00071 
0.00071 
0.00071 
0.00071 
0.00071 
0.00071 
0.00071 
0.00071 
0.00071 
0.00071 
0.00071 
0.00071 
0.00071 
0.00071 
0.00071 
0.00071 
0.00071 
0.00071 
0.00071 
0.00071 
0.00071 
0.00071 
0.00071 
0.00071 
0.00071 
0.00071 
0.00071 
0.00071 
0.00071 
0.00071 
0.00071 
0.00071 
0.00071 
0.00071 
0.00071 
0.00071 
0.00071 
0.00071 
0.00071 
0.00071 
0.00071 
0.00071 
0.00071 
0.00071 
0.00071 
0.00071 
0.00071 
0.00071 
0.00071 
0.00071 
0.00071 
0.00071 
0.00071 
0.00071 
0.00071 
0.00071 
0.00071 
0.00071 
0.00071 
0.00071 
0.00071 
0.00071 
0.00071 
0.00071 
0.00071 
0.00071 
0.00071 
0.00071 
0.00071 
0.00071 
0.00071 
0.00071 
0.00071 
0.00071 
0.00071 
0.00071 
0.00071 
0.00071 
0.00071 
0.00071 
0.00071 
0.00071 
0.00071 
0.00071 
0.00071 
0.00071 
0.00071 
0.00071 
0.00071 
0.00071 
0.00071 
0.00071 
0.00071 
0.00071 
0.00071 
0.00071 
0.00071 
0.00071 
0.00071 
0.00071 
0.00071 
0.00071 
0.00071 
0.00071 
0.00071 
0.00071 
0.00071 
0.00071 
0.00071 
0.00071 
0.00071 
0.00071 
0.00071 
0.00071 
0.00071 
0.00071 
0.00071 
0.00071 
0.00071 
0.00071 
0.00071 
0.00071 
0.00071 
0.00071 
0.00071 
0.00071 
0.00071 
0.00071 
0.00071 
0.00071 
0.00071 
0.00071 
0.00071 
0.00071 
0.00071 
0.00071 
0.00071 
0.00071 
0.00071 
0.00071 
0.00071 
0.00071 
0.00071 
0.00071 
0.00071 
0.00071 
0.00071 
0.00071 
0.00071 
0.00071 
0.00071 
0.00071 
0.00071 
0.00071 
0.00071 
0.00071 
0.00071 
0.00071 
0.00071 
0.00071 
0.00071 
0.00071 
0.00071 
0.00071 
0.00071 
0.00071 
0.00071 
0.00071 
0.00071 
0.00071 
0.00071 
0.00071 
0.00071 
0.00071 
0.00071 
0.00071 
0.00071 
0.00071 
0.00071 
0.00071 
0.00071 
0.00071 
0.00071 
0.00071 
0.00071 
0.00071 
0.00071 
0.00071 
0.00071 
0.00071 
0.00071 
0.00071 
0.00071 
0.00071 
0.00071 
0.00071 
0.00071 
0.00071 
0.00071 
0.00071 
0.00071 
0.00071 
0.00071 
0.00071 
0.00071 
0.00071 
0.00071 
0.00071 
0.00071 
0.00071 
0.00071 
0.00071 
0.00071 
0.00071 
0.00071 
0.00071 
0.00071 
0.00071 
0.00071 
0.00071 
0.00071 
0.00071 
0.00071 
0.00071 
0.00071 
0.00071 
0.00071 
0.00071 
0.00071 
0.00071 
0.00071 
0.00071 
0.00071 
0.00071 
0.00071 
0.00071 
0.00071 
0.00071 
0.00071 
0.00071 
0.00071 
0.00071 
0.00071 
0.00071 
0.00071 
0.00071 
0.00071 
0.00071 
0.00071 
0.00071 
0.00071 
0.00071 
0.00071 
0.00071 
0.00071 
0.00071 
0.00071 
0.00071 
0.00071 
0.00071 
0.00071 
0.00071 
0.00071 
0.00071 
0.00071 
0.00071 
0.00071 
0.00071 
0.00071 
0.00071 
0.00071 
0.00071 
0.00071 
0.00071 
0.00071 
0.00071 
0.00071 
0.00071 
0.00071 
0.00071 
0.00071 
0.00071 
0.00071 
0.00071 
0.00071 
0.00071 
0.00071 
0.00071 
0.00071 
0.00071 
0.00071 
0.00071 
0.00071 
0.00071 
0.00071 
0.00071 
0.00071 
0.00071 
0.00071 
0.00071 
0.00071 
0.00071 
0.00071 
0.00071 
0.00071 
0.00071 
0.00071 
0.00071 
0.00071 
0.00071 
0.00071 
0.00071 
0.00071 
0.00071 
0.00071 
0.00071 
0.00071 
0.00071 
0.00071 
0.00071 
0.00071 
0.00071 
0.00071 
0.00071 
0.00071 
0.00071 
0.00071 
0.00071 
0.00071 
0.00071 
0.00071 
0.00071 
0.00071 
0.00071 
0.00071 
0.00071 
0.00071 
0.00071 
0.00071 
0.00071 
0.00071 
0.00071 
0.00071 
0.00071 
0.00071 
0.00071 
0.00071 
0.00071 
0.00071 
0.00071 
0.00071 
0.00071 
0.00071 
0.00071 
0.00071 
0.00071 
0.00071 
0.00071 
0.00071 
0.00071 
0.00071 
0.00071 
0.00071 
0.00071 
0.00071 
0.00071 
0.00071 
0.00071 
0.00071 
0.00071 
0.00071 
0.00071 
0.00071 
0.00071 
0.00071 
0.00071 
0.00071 
0.00071 
0.00071 
0.00071 
0.00071 
0.00071 
0.00071 
0.00071 
0.00071 
0.00071 
0.00071 
0.00071 
0.00071 
0.00071 
0.00071 
0.00071 
0.00071 
0.00071 
0.00071 
0.00071 
0.00071 
0.00071 
0.00071 
0.00071 
0.00366 
0.00366 
0.00366 
0.00366 
0.00366 
0.00366 
0.00366 
0.00366 
0.00366 
0.00366 
0.00366 
0.00366 
0.00366 
0.00366 
0.00366 
0.00366 
0.00366 
0.00366 
0.00366 
0.00366 
0.00366 
0.00366 
0.00366 
0.00366 
0.00366 
0.00366 
0.00366 
0.00366 
0.00366 
0.00366 
0.00366 
0.00366 
0.00366 
0.00366 
0.00366 
0.00366 
0.00366 
0.00366 
0.00366 
0.00366 
0.00366 
0.00366 
0.00366 
0.00366 
0.00366 
0.00366 
0.00366 
0.00366 
0.00366 
0.00366 
0.00366 
0.00366 
0.00366 
0.00366 
0.00366 
0.00366 
0.00366 
0.00366 
0.00366 
0.00366 
0.00366 
0.00366 
0.00366 
0.00366 
0.00366 
0.00366 
0.00366 
0.00366 
0.00366 
0.00366 
0.00366 
0.00366 
0.00366 
0.00366 
0.00366 
0.00366 
0.00366 
0.00366 
0.00366 
0.00366 
0.00366 
0.00366 
0.00366 
0.00366 
0.00366 
0.00366 
0.00366 
0.00366 
0.00366 
0.00366 
0.00366 
0.00366 
0.00366 
0.00366 
0.00366 
0.00366 
0.00366 
0.00366 
0.00366 
0.00366 
0.00366 
0.00366 
0.00366 
0.00366 
0.00366 
0.00366 
0.00366 
0.00366 
0.00366 
0.00366 
0.00366 
0.00366 
0.00366 
0.00366 
0.00366 
0.00366 
0.00366 
0.00366 
0.00366 
0.00366 
0.00366 
0.00366 
0.00366 
0.00366 
0.00366 
0.00366 
0.00366 
0.00366 
0.00366 
0.00366 
0.00366 
0.00366 
0.00366 
0.00366 
0.00366 
0.00366 
0.00366 
0.00366 
0.00366 
0.00366 
0.00366 
0.00366 
0.00366 
0.00366 
0.00366 
0.00366 
0.00366 
0.00366 
0.00366 
0.00366 
0.00366 
0.00366 
0.00366 
0.00366 
0.00366 
0.00366 
0.00366 
0.00366 
0.00366 
0.00366 
0.00366 
0.00366 
0.00366 
0.00366 
0.00366 
0.00366 
0.00366 
0.00366 
0.00366 
0.00366 
0.00366 
0.00366 
0.00366 
0.00366 
0.00366 
0.00366 
0.00366 
0.00366 
0.00366 
0.00366 
0.00366 
0.00366 
0.00366 
0.00366 
0.00366 
0.00366 
0.00366 
0.00366 
0.00366 
0.00366 
0.00366 
0.00366 
0.00366 
0.00366 
0.00366 
0.00366 
0.00366 
0.00366 
0.00366 
0.00366 
0.00366 
0.00366 
0.00366 
0.00366 
0.00366 
0.00366 
0.00366 
0.00366 
0.00366 
0.00366 
0.00366 
0.00366 
0.00366 
0.00366 
0.00366 
0.00366 
0.00366 
0.00366 
0.00366 
0.00366 
0.00366 
0.00366 
0.00366 
0.00366 
0.00366 
0.00366 
0.00366 
0.00366 
0.00366 
0.00366 
0.00366 
0.00366 
0.00366 
0.00366 
0.00366 
0.00366 
0.00366 
0.00366 
0.00366 
0.00366 
0.00366 
0.00366 
0.00366 
0.00366 
0.00366 
0.00366 
0.00366 
0.00366 
0.00366 
0.00366 
0.00366 
0.00366 
0.00366 
0.00366 
0.00366 
0.00366 
0.00366 
0.00366 
0.00366 
0.00366 
0.00366 
0.00366 
0.00366 
0.00366 
0.00366 
0.00366 
0.00366 
0.00366 
0.00366 
0.00366 
0.00366 
0.00366 
0.00366 
0.00366 
0.00366 
0.00366 
0.00366 
0.00366 
0.00366 
0.00366 
0.00366 
0.00366 
0.00366 
0.00366 
0.00366 
0.00366 
0.00366 
0.00366 
0.00366 
0.00366 
0.00366 
0.00366 
0.00366 
0.00366 
0.00366 
0.00366 
0.00366 
0.00366 
0.00366 
0.00366 
0.00366 
0.00366 
0.00366 
0.00366 
0.00366 
0.00366 
0.00366 
0.00366 
0.00366 
0.00366 
0.00366 
0.00366 
0.00366 
0.00366 
0.00366 
0.00366 
0.00366 
0.00366 
0.00366 
0.00366 
0.00366 
0.00366 
0.00366 
0.00366 
0.00366 
0.00366 
0.00366 
0.00366 
0.00366 
0.00366 
0.00366 
0.00366 
0.00366 
0.00366 
0.00366 
0.00366 
0.00366 
0.00366 
0.00366 
0.00366 
0.00366 
0.00366 
0.00366 
0.00366 
0.00366 
0.00366 
0.00366 
0.00366 
0.00366 
0.00366 
0.00366 
0.00366 
0.00366 
0.00366 
0.00366 
0.00366 
0.00366 
0.00366 
0.00366 
0.00366 
0.00366 
0.00366 
0.00366 
0.00366 
0.00366 
0.00366 
0.00366 
0.00366 
0.00366 
0.00366 
0.00366 
0.00366 
0.00366 
0.00366 
0.00366 
0.00366 
0.00366 
0.00366 
0.00366 
0.00366 
0.00366 
0.00366 
0.00366 
0.00366 
0.00366 
0.00366 
0.00366 
0.00366 
0.00366 
0.00366 
0.00366 
0.00366 
0.00366 
0.00366 
0.00366 
0.00366 
0.00366 
0.00366 
0.00366 
0.00366 
0.00366 
0.00366 
0.00366 
0.00366 
0.00366 
0.00366 
0.00366 
0.00366 
0.00366 
0.00366 
0.00366 
0.00366 
0.00366 
0.00366 
0.00366 
0.00366 
0.00366 
0.00366 
0.00366 
0.00366 
0.00366 
0.00366 
0.00366 
0.00366 
0.00366 
0.00366 
0.00366 
0.00366 
0.00366 
0.00366 
0.00366 
0.00366 
0.00366 
0.00366 
0.00366 
0.00366 
0.00366 
0.00366 
0.00366 
0.00366 
0.00366 
0.00366 
0.00366 
0.00366 
0.00366 
0.00366 
0.00366 
0.00366 
0.00366 
0.00366 
0.00366 
0.00366 
0.00366 
0.00366 
0.00366 
0.00366 
0.00366 
0.00366 
0.00366 
0.00366 
0.00366 
0.00366 
0.00366 
0.00366 
0.00366 
0.00366 
0.00366 
0.00366 
0.00366 
0.00366 
0.00366 
0.00366 
0.00366 
0.00366 
0.00366 
0.00366 
0.00366 
0.00366 
0.00366 
0.00366 
0.00366 
0.00366 
0.00366 
0.00366 
0.00366 
0.00366 
0.00366 
0.00366 
0.00366 
0.00366 
0.00366 
0.00366 
0.00366 
0.00366 
0.00366 
0.00366 
0.00366 
0.00366 
0.00366 
0.00366 
0.00366 
0.00366 
0.00366 
0.00366 
0.00366 
0.00366 
0.00366 
0.00366 
0.00366 
0.00366 
0.00366 
0.00366 
0.00366 
0.00366 
0.00366 
0.00366 
0.00366 
0.00366 
0.00366 
0.00366 
0.00366 
0.00366 
0.00366 
0.00366 
0.00366 
0.00366 
0.00366 
0.00366 
0.00366 
0.00366 
0.00366 
0.00366 
0.00366 
0.00366 
0.00366 
0.00366 
0.00366 
0.00366 
0.00366 
0.00366 
0.00366 
0.00366 
0.00366 
0.00366 
0.00366 
0.00366 
0.00366 
0.00366 
0.00366 
0.00366 
0.00366 
0.00366 
0.00366 
0.00366 
0.00366 
0.00366 
0.00366 
0.00366 
0.00366 
0.00366 
0.00366 
0.00366 
0.00366 
0.00366 
0.00366 
0.00366 
0.00366 
0.00366 
0.00366 
0.00366 
0.00366 
0.00366 
0.00366 
0.00366 
0.00366 
0.00366 
0.00366 
0.00366 
0.00366 
0.00366 
0.00366 
0.00366 
0.00366 
0.00366 
0.00366 
0.00366 
0.00366 
0.00366 
0.00366 
0.00366 
0.00366 
0.00366 
0.00366 
0.00366 
0.00366 
0.00366 
0.00366 
0.00366 
0.00366 
0.00366 
0.00366 
0.00366 
0.00366 
0.00366 
0.00366 
0.00366 
0.00366 
0.00366 
0.00366 
0.00366 
0.00366 
0.00366 
0.00366 
0.00366 
0.00366 
0.00366 
0.00366 
0.00366 
0.00366 
0.00366 
0.00366 
0.00366 
0.00366 
0.00366 
0.00366 
0.00366 
0.00366 
0.00366 
0.00366 
0.00366 
0.00366 
0.00366 
0.00366 
0.00366 
0.00366 
0.00366 
0.00366 
0.00366 
0.00366 
0.00366 
0.00366 
0.00366 
0.00366 
0.00366 
0.00366 
0.00366 
0.00366 
0.00366 
0.00366 
0.00366 
0.00366 
0.00366 
0.00366 
0.00366 
0.00366 
0.00366 
0.00366 
0.00366 
0.00366 
0.00366 
0.00366 
0.00366 
0.00366 
0.00366 
0.00366 
0.00366 
0.00366 
0.00366 
0.00366 
0.00366 
0.00366 
0.00770 
0.00770 
0.00770 
0.00770 
0.00770 
0.00770 
0.00770 
0.00770 
0.00770 
0.00770 
0.00770 
0.00770 
0.00770 
0.00770 
0.00770 
0.00770 
0.00770 
0.00770 
0.00770 
0.00770 
0.00770 
0.00770 
0.00770 
0.00770 
0.00770 
0.00770 
0.00770 
0.00770 
0.00770 
0.00770 
0.00770 
0.00770 
0.00770 
0.00770 
0.00770 
0.00770 
0.00770 
0.00770 
0.00770 
0.00770 
0.00770 
0.00770 
0.00770 
0.00770 
0.00770 
0.00770 
0.00770 
0.00770 
0.00770 
0.00770 
0.00770 
0.00770 
0.00770 
0.00770 
0.00770 
0.00770 
0.00770 
0.00770 
0.00770 
0.00770 
0.00770 
0.00770 
0.00770 
0.00770 
0.00770 
0.00770 
0.00770 
0.00770 
0.00770 
0.00770 
0.00770 
0.00770 
0.00770 
0.00770 
0.00770 
0.00770 
0.00770 
0.00770 
0.00770 
0.00770 
0.00770 
0.00770 
0.00770 
0.00770 
0.00770 
0.00770 
0.00770 
0.00770 
0.00770 
0.00770 
0.00770 
0.00770 
0.00770 
0.00770 
0.00770 
0.00770 
0.00770 
0.00770 
0.00770 
0.00770 
0.00770 
0.00770 
0.00770 
0.00770 
0.00770 
0.00770 
0.00770 
0.00770 
0.00770 
0.00770 
0.00770 
0.00770 
0.00770 
0.00770 
0.00770 
0.00770 
0.00770 
0.00770 
0.00770 
0.00770 
0.00770 
0.00770 
0.00770 
0.00770 
0.00770 
0.00770 
0.00770 
0.00770 
0.00770 
0.00770 
0.00770 
0.00770 
0.00770 
0.00770 
0.00770 
0.00770 
0.00770 
0.00770 
0.00770 
0.00770 
0.00770 
0.00770 
0.00770 
0.00770 
0.00770 
0.00770 
0.00770 
0.00770 
0.00770 
0.00770 
0.00770 
0.00770 
0.00770 
0.00770 
0.00770 
0.00770 
0.00770 
0.00770 
0.00770 
0.00770 
0.00770 
0.00770 
0.00770 
0.00770 
0.00770 
0.00770 
0.00770 
0.00770 
0.00770 
0.00770 
0.00770 
0.00770 
0.00770 
0.00770 
0.00770 
0.00770 
0.00770 
0.00770 
0.00770 
0.00770 
0.00770 
0.00770 
0.00770 
0.00770 
0.00770 
0.00770 
0.00770 
0.00770 
0.00770 
0.00770 
0.00770 
0.00770 
0.00770 
0.00770 
0.00770 
0.00770 
0.00770 
0.00770 
0.00770 
0.00770 
0.00770 
0.00770 
0.00770 
0.00770 
0.00770 
0.00770 
0.00770 
0.00770 
0.00770 
0.00770 
0.00770 
0.00770 
0.00770 
0.00770 
0.00770 
0.00770 
0.00770 
0.00770 
0.00770 
0.00770 
0.00770 
0.00770 
0.00770 
0.00770 
0.00770 
0.00770 
0.00770 
0.00770 
0.00770 
0.00770 
0.00770 
0.00770 
0.00770 
0.00770 
0.00770 
0.00770 
0.00770 
0.00770 
0.00770 
0.00770 
0.00770 
0.00770 
0.00770 
0.00770 
0.00770 
0.00770 
0.00770 
0.00770 
0.00770 
0.00770 
0.00770 
0.00770 
0.00770 
0.00770 
0.00770 
0.00770 
0.00770 
0.00770 
0.00770 
0.00770 
0.00770 
0.00770 
0.00770 
0.00770 
0.00770 
0.00770 
0.00770 
0.00770 
0.00770 
0.00770 
0.00770 
0.00770 
0.00770 
0.00770 
0.00770 
0.00770 
0.00770 
0.00770 
0.00770 
0.00770 
0.00770 
0.00770 
0.00770 
0.00770 
0.00770 
0.00770 
0.00770 
0.00770 
0.00770 
0.00770 
0.00770 
0.00770 
0.00770 
0.00770 
0.00770 
0.00770 
0.00770 
0.00770 
0.00770 
0.00770 
0.00770 
0.00770 
0.00770 
0.00770 
0.00770 
0.00770 
0.00770 
0.00770 
0.00770 
0.00770 
0.00770 
0.00770 
0.00770 
0.00770 
0.00770 
0.00770 
0.00770 
0.00770 
0.00770 
0.00770 
0.00770 
0.00770 
0.00770 
0.00770 
0.00770 
0.00770 
0.00770 
0.00770 
0.00770 
0.00770 
0.00770 
0.00770 
0.00770 
0.00770 
0.00770 
0.00770 
0.00770 
0.00770 
0.00770 
0.00770 
0.00770 
0.00770 
0.00770 
0.00770 
0.00770 
0.00770 
0.00770 
0.00770 
0.00770 
0.00770 
0.00770 
0.00770 
0.00770 
0.00770 
0.00770 
0.00770 
0.00770 
0.00770 
0.00770 
0.00770 
0.00770 
0.00770 
0.00770 
0.00770 
0.00770 
0.00770 
0.00770 
0.00770 
0.00770 
0.00770 
0.00770 
0.00770 
0.00770 
0.00770 
0.00770 
0.00770 
0.00770 
0.00770 
0.00770 
0.00770 
0.00770 
0.00770 
0.00770 
0.00770 
0.00770 
0.00770 
0.00770 
0.00770 
0.00770 
0.00770 
0.00770 
0.00770 
0.00770 
0.00770 
0.00770 
0.00770 
0.00770 
0.00770 
0.00770 
0.00770 
0.00770 
0.00770 
0.00770 
0.00770 
0.00770 
0.00770 
0.00770 
0.00770 
0.00770 
0.00770 
0.00770 
0.00770 
0.00770 
0.00770 
0.00770 
0.00770 
0.00770 
0.00770 
0.00770 
0.00770 
0.00770 
0.00770 
0.00770 
0.00770 
0.00770 
0.00770 
0.00770 
0.00770 
0.00770 
0.00770 
0.00770 
0.00770 
0.00770 
0.00770 
0.00770 
0.00770 
0.00770 
0.00770 
0.00770 
0.00770 
0.00770 
0.00770 
0.00770 
0.00770 
0.00770 
0.00770 
0.00770 
0.00770 
0.00770 
0.00770 
0.00770 
0.00770 
0.00770 
0.00770 
0.00770 
0.00770 
0.00770 
0.00770 
0.00770 
0.00770 
0.00770 
0.00770 
0.00770 
0.00770 
0.00770 
0.00770 
0.00770 
0.00770 
0.00770 
0.00770 
0.00770 
0.00770 
0.00770 
0.00770 
0.00770 
0.00770 
0.00770 
0.00770 
0.00770 
0.00770 
0.00770 
0.00770 
0.00770 
0.00770 
0.00770 
0.00770 
0.00770 
0.00770 
0.00770 
0.00770 
0.00770 
0.00770 
0.00770 
0.00770 
0.00770 
0.00770 
0.00770 
0.00770 
0.00770 
0.00770 
0.00770 
0.00770 
0.00770 
0.00770 
0.00770 
0.00770 
0.00770 
0.00770 
0.00770 
0.00770 
0.00770 
0.00770 
0.00770 
0.00770 
0.00770 
0.00770 
0.00770 
0.00770 
0.00770 
0.00770 
0.00770 
0.00770 
0.00770 
0.00770 
0.00770 
0.00770 
0.00770 
0.00770 
0.00770 
0.00770 
0.00770 
0.00770 
0.00770 
0.00770 
0.00770 
0.00770 
0.00770 
0.00770 
0.00770 
0.00770 
0.00770 
0.00770 
0.00770 
0.00770 
0.00770 
0.00770 
0.00770 
0.00770 
0.00770 
0.00770 
0.00770 
0.00770 
0.00770 
0.00770 
0.00770 
0.00770 
0.00770 
0.00770 
0.00770 
0.00770 
0.00770 
0.00770 
0.00770 
0.00770 
0.00770 
0.00770 
0.00770 
0.00770 
0.00770 
0.00770 
0.00770 
0.00770 
0.00770 
0.00770 
0.00770 
0.00770 
0.00770 
0.00770 
0.00770 
0.00770 
0.00770 
0.00770 
0.00770 
0.00770 
0.00770 
0.00770 
0.00770 
0.00770 
0.00770 
0.00770 
0.00770 
0.00770 
0.00770 
0.00770 
0.00770 
0.00770 
0.00770 
0.00770 
0.00770 
0.00770 
0.00770 
0.00770 
0.00770 
0.00770 
0.00770 
0.00770 
0.00770 
0.00770 
0.00770 
0.00770 
0.00770 
0.00770 
0.00770 
0.00770 
0.00770 
0.00770 
0.00770 
0.00770 
0.00770 
0.00770 
0.00770 
0.00770 
0.00770 
0.00770 
0.00770 
0.00770 
0.00770 
0.00770 
0.00770 
0.00770 
0.00770 
0.00770 
0.00770 
0.00770 
0.00770 
0.00770 
0.00770 
0.00770 
0.00770 
0.00770 
0.00770 
0.00770 
0.00770 
0.00770 
0.00770 
0.00770 
0.00770 
0.00770 
0.00770 
0.00770 
0.00770 
0.00770 
0.00770 
0.00770 
0.00770 
0.00770 
0.00770 
0.00770 
0.00770 
0.00770 
0.00770 
0.00770 
0.00770 
0.00770 
0.00770 
0.00770 
0.00770 
0.00770 
0.00770 
0.00770 
0.00770 
0.01717 
0.01717 
0.01717 
0.01717 
0.01717 
0.01717 
0.01717 
0.01717 
0.01717 
0.01717 
0.01717 
0.01717 
0.01717 
0.01717 
0.01717 
0.01717 
0.01717 
0.01717 
0.01717 
0.01717 
0.01717 
0.01717 
0.01717 
0.01717 
0.01717 
0.01717 
0.01717 
0.01717 
0.01717 
0.01717 
0.01717 
0.01717 
0.01717 
0.01717 
0.01717 
0.01717 
0.01717 
0.01717 
0.01717 
0.01717 
0.01717 
0.01717 
0.01717 
0.01717 
0.01717 
0.01717 
0.01717 
0.01717 
0.01717 
0.01717 
0.01717 
0.01717 
0.01717 
0.01717 
0.01717 
0.01717 
0.01717 
0.01717 
0.01717 
0.01717 
0.01717 
0.01717 
0.01717 
0.01717 
0.01717 
0.01717 
0.01717 
0.01717 
0.01717 
0.01717 
0.01717 
0.01717 
0.01717 
0.01717 
0.01717 
0.01717 
0.01717 
0.01717 
0.01717 
0.01717 
0.01717 
0.01717 
0.01717 
0.01717 
0.01717 
0.01717 
0.01717 
0.01717 
0.01717 
0.01717 
0.01717 
0.01717 
0.01717 
0.01717 
0.01717 
0.01717 
0.01717 
0.01717 
0.01717 
0.01717 
0.01717 
0.01717 
0.01717 
0.01717 
0.01717 
0.01717 
0.01717 
0.01717 
0.01717 
0.01717 
0.01717 
0.01717 
0.01717 
0.01717 
0.01717 
0.01717 
0.01717 
0.01717 
0.01717 
0.01717 
0.01717 
0.01717 
0.01717 
0.01717 
0.01717 
0.01717 
0.01717 
0.01717 
0.01717 
0.01717 
0.01717 
0.01717 
0.01717 
0.01717 
0.01717 
0.01717 
0.01717 
0.01717 
0.01717 
0.01717 
0.01717 
0.01717 
0.01717 
0.01717 
0.01717 
0.01717 
0.01717 
0.01717 
0.01717 
0.01717 
0.01717 
0.01717 
0.01717 
0.01717 
0.01717 
0.01717 
0.01717 
0.01717 
0.01717 
0.01717 
0.01717 
0.01717 
0.01717 
0.01717 
0.01717 
0.01717 
0.01717 
0.01717 
0.01717 
0.01717 
0.01717 
0.01717 
0.01717 
0.01717 
0.01717 
0.01717 
0.01717 
0.01717 
0.01717 
0.01717 
0.01717 
0.01717 
0.01717 
0.01717 
0.01717 
0.01717 
0.01717 
0.01717 
0.01717 
0.01717 
0.01717 
0.01717 
0.01717 
0.01717 
0.01717 
0.01717 
0.01717 
0.01717 
0.01717 
0.01717 
0.01717 
0.01717 
0.01717 
0.01717 
0.01717 
0.01717 
0.01717 
0.01717 
0.01717 
0.01717 
0.01717 
0.01717 
0.01717 
0.01717 
0.01717 
0.01717 
0.01717 
0.01717 
0.01717 
0.01717 
0.01717 
0.01717 
0.01717 
0.01717 
0.01717 
0.01717 
0.01717 
0.01717 
0.01717 
0.01717 
0.01717 
0.01717 
0.01717 
0.01717 
0.01717 
0.01717 
0.01717 
0.01717 
0.01717 
0.01717 
0.01717 
0.01717 
0.01717 
0.01717 
0.01717 
0.01717 
0.01717 
0.01717 
0.01717 
0.01717 
0.01717 
0.01717 
0.01717 
0.01717 
0.01717 
0.01717 
0.01717 
0.01717 
0.01717 
0.01717 
0.01717 
0.01717 
0.01717 
0.01717 
0.01717 
0.01717 
0.01717 
0.01717 
0.01717 
0.01717 
0.01717 
0.01717 
0.01717 
0.01717 
0.01717 
0.01717 
0.01717 
0.01717 
0.01717 
0.01717 
0.01717 
0.01717 
0.01717 
0.01717 
0.01717 
0.01717 
0.01717 
0.01717 
0.01717 
0.01717 
0.01717 
0.01717 
0.01717 
0.01717 
0.01717 
0.01717 
0.01717 
0.01717 
0.01717 
0.01717 
0.01717 
0.01717 
0.01717 
0.01717 
0.01717 
0.01717 
0.01717 
0.01717 
0.01717 
0.01717 
0.01717 
0.01717 
0.01717 
0.01717 
0.01717 
0.01717 
0.01717 
0.01717 
0.01717 
0.01717 
0.01717 
0.01717 
0.01717 
0.01717 
0.01717 
0.01717 
0.01717 
0.01717 
0.01717 
0.01717 
0.01717 
0.01717 
0.01717 
0.01717 
0.01717 
0.01717 
0.01717 
0.01717 
0.01717 
0.01717 
0.01717 
0.01717 
0.01717 
0.01717 
0.01717 
0.01717 
0.01717 
0.01717 
0.01717 
0.01717 
0.01717 
0.01717 
0.01717 
0.01717 
0.01717 
0.01717 
0.01717 
0.01717 
0.01717 
0.01717 
0.01717 
0.01717 
0.01717 
0.01717 
0.01717 
0.01717 
0.01717 
0.01717 
0.01717 
0.01717 
0.01717 
0.01717 
0.01717 
0.01717 
0.01717 
0.01717 
0.01717 
0.01717 
0.01717 
0.01717 
0.01717 
0.01717 
0.01717 
0.01717 
0.01717 
0.01717 
0.01717 
0.01717 
0.01717 
0.01717 
0.01717 
0.01717 
0.01717 
0.01717 
0.01717 
0.01717 
0.01717 
0.01717 
0.01717 
0.01717 
0.01717 
0.01717 
0.01717 
0.01717 
0.01717 
0.01717 
0.01717 
0.01717 
0.01717 
0.01717 
0.01717 
0.01717 
0.01717 
0.01717 
0.01717 
0.01717 
0.01717 
0.01717 
0.01717 
0.01717 
0.01717 
0.01717 
0.01717 
0.01717 
0.01717 
0.01717 
0.01717 
0.01717 
0.01717 
0.01717 
0.01717 
0.01717 
0.01717 
0.01717 
0.01717 
0.01717 
0.01717 
0.01717 
0.01717 
0.01717 
0.01717 
0.01717 
0.01717 
0.01717 
0.01717 
0.01717 
0.01717 
0.01717 
0.01717 
0.01717 
0.01717 
0.01717 
0.01717 
0.01717 
0.01717 
0.01717 
0.01717 
0.01717 
0.01717 
0.01717 
0.01717 
0.01717 
0.01717 
0.01717 
0.01717 
0.01717 
0.01717 
0.01717 
0.01717 
0.01717 
0.01717 
0.01717 
0.01717 
0.01717 
0.01717 
0.01717 
0.01717 
0.01717 
0.01717 
0.01717 
0.01717 
0.01717 
0.01717 
0.01717 
0.01717 
0.01717 
0.01717 
0.01717 
0.01717 
0.01717 
0.01717 
0.01717 
0.01717 
0.01717 
0.01717 
0.01717 
0.01717 
0.01717 
0.01717 
0.01717 
0.01717 
0.01717 
0.01717 
0.01717 
0.01717 
0.01717 
0.01717 
0.01717 
0.01717 
0.01717 
0.01717 
0.01717 
0.01717 
0.01717 
0.01717 
0.01717 
0.01717 
0.01717 
0.01717 
0.01717 
0.01717 
0.01717 
0.01717 
0.01717 
0.01717 
0.01717 
0.01717 
0.01717 
0.01717 
0.01717 
0.01717 
0.01717 
0.01717 
0.01717 
0.01717 
0.01717 
0.01717 
0.01717 
0.01717 
0.01717 
0.01717 
0.01717 
0.01717 
0.01717 
0.01717 
0.01717 
0.01717 
0.01717 
0.01717 
0.01717 
0.01717 
0.01717 
0.01717 
0.01717 
0.01717 
0.01717 
0.01717 
0.01717 
0.01717 
0.01717 
0.01717 
0.01717 
0.01717 
0.01717 
0.01717 
0.01717 
0.01717 
0.01717 
0.01717 
0.01717 
0.01717 
0.01717 
0.01717 
0.01717 
0.01717 
0.01717 
0.01717 
0.01717 
0.01717 
0.01717 
0.01717 
0.01717 
0.01717 
0.01717 
0.01717 
0.01717 
0.01717 
0.01717 
0.01717 
0.01717 
0.01717 
0.01717 
0.01717 
0.01717 
0.01717 
0.01717 
0.01717 
0.01717 
0.01717 
0.01717 
0.01717 
0.01717 
0.01717 
0.01717 
0.01717 
0.01717 
0.01717 
0.01717 
0.01717 
0.01717 
0.01717 
0.01717 
0.01717 
0.01717 
0.01717 
0.01717 
0.01717 
0.01717 
0.01717 
0.01717 
0.01717 
0.01717 
0.01717 
0.01717 
0.01717 
0.01717 
0.01717 
0.01717 
0.01717 
0.01717 
0.01717 
0.01717 
0.01717 
0.01717 
0.01717 
0.01717 
0.01717 
0.01717 
0.01717 
0.01717 
0.01717 
0.01717 
0.01717 
0.01717 
0.01717 
0.01717 
0.01717 
0.01717 
0.01717 
0.01717 
0.01717 
0.01717 
0.01717 
0.01717 
0.01717 
0.01717 
0.01717 
0.01717 
0.01717 
0.01717 
0.01717 
0.01717 
0.01717 
0.01717 
0.01717 
0.01717 
0.01717 
0.01717 
0.01717 
0.01717 
0.01717 
0.02908 
0.02908 
0.02908 
0.02908 
0.02908 
0.02908 
0.02908 
0.02908 
0.02908 
0.02908 
0.02908 
0.02908 
0.02908 
0.02908 
0.02908 
0.02908 
0.02908 
0.02908 
0.02908 
0.02908 
0.02908 
0.02908 
0.02908 
0.02908 
0.02908 
0.02908 
0.02908 
0.02908 
0.02908 
0.02908 
0.02908 
0.02908 
0.02908 
0.02908 
0.02908 
0.02908 
0.02908 
0.02908 
0.02908 
0.02908 
0.02908 
0.02908 
0.02908 
0.02908 
0.02908 
0.02908 
0.02908 
0.02908 
0.02908 
0.02908 
0.02908 
0.02908 
0.02908 
0.02908 
0.02908 
0.02908 
0.02908 
0.02908 
0.02908 
0.02908 
0.02908 
0.02908 
0.02908 
0.02908 
0.02908 
0.02908 
0.02908 
0.02908 
0.02908 
0.02908 
0.02908 
0.02908 
0.02908 
0.02908 
0.02908 
0.02908 
0.02908 
0.02908 
0.02908 
0.02908 
0.02908 
0.02908 
0.02908 
0.02908 
0.02908 
0.02908 
0.02908 
0.02908 
0.02908 
0.02908 
0.02908 
0.02908 
0.02908 
0.02908 
0.02908 
0.02908 
0.02908 
0.02908 
0.02908 
0.02908 
0.02908 
0.02908 
0.02908 
0.02908 
0.02908 
0.02908 
0.02908 
0.02908 
0.02908 
0.02908 
0.02908 
0.02908 
0.02908 
0.02908 
0.02908 
0.02908 
0.02908 
0.02908 
0.02908 
0.02908 
0.02908 
0.02908 
0.02908 
0.02908 
0.02908 
0.02908 
0.02908 
0.02908 
0.02908 
0.02908 
0.02908 
0.02908 
0.02908 
0.02908 
0.02908 
0.02908 
0.02908 
0.02908 
0.02908 
0.02908 
0.02908 
0.02908 
0.02908 
0.02908 
0.02908 
0.02908 
0.02908 
0.02908 
0.02908 
0.02908 
0.02908 
0.02908 
0.02908 
0.02908 
0.02908 
0.02908 
0.02908 
0.02908 
0.02908 
0.02908 
0.02908 
0.02908 
0.02908 
0.02908 
0.02908 
0.02908 
0.02908 
0.02908 
0.02908 
0.02908 
0.02908 
0.02908 
0.02908 
0.02908 
0.02908 
0.02908 
0.02908 
0.02908 
0.02908 
0.02908 
0.02908 
0.02908 
0.02908 
0.02908 
0.02908 
0.02908 
0.02908 
0.02908 
0.02908 
0.02908 
0.02908 
0.02908 
0.02908 
0.02908 
0.02908 
0.02908 
0.02908 
0.02908 
0.02908 
0.02908 
0.02908 
0.02908 
0.02908 
0.02908 
0.02908 
0.02908 
0.02908 
0.02908 
0.02908 
0.02908 
0.02908 
0.02908 
0.02908 
0.02908 
0.02908 
0.02908 
0.02908 
0.02908 
0.02908 
0.02908 
0.02908 
0.02908 
0.02908 
0.02908 
0.02908 
0.02908 
0.02908 
0.02908 
0.02908 
0.02908 
0.02908 
0.02908 
0.02908 
0.02908 
0.02908 
0.02908 
0.02908 
0.02908 
0.02908 
0.02908 
0.02908 
0.02908 
0.02908 
0.02908 
0.02908 
0.02908 
0.02908 
0.02908 
0.02908 
0.02908 
0.02908 
0.02908 
0.02908 
0.02908 
0.02908 
0.02908 
0.02908 
0.02908 
0.02908 
0.02908 
0.02908 
0.02908 
0.02908 
0.02908 
0.02908 
0.02908 
0.02908 
0.02908 
0.02908 
0.02908 
0.02908 
0.02908 
0.02908 
0.02908 
0.02908 
0.02908 
0.02908 
0.02908 
0.02908 
0.02908 
0.02908 
0.02908 
0.02908 
0.02908 
0.02908 
0.02908 
0.02908 
0.02908 
0.02908 
0.02908 
0.02908 
0.02908 
0.02908 
0.02908 
0.02908 
0.02908 
0.02908 
0.02908 
0.02908 
0.02908 
0.02908 
0.02908 
0.02908 
0.02908 
0.02908 
0.02908 
0.02908 
0.02908 
0.02908 
0.02908 
0.02908 
0.02908 
0.02908 
0.02908 
0.02908 
0.02908 
0.02908 
0.02908 
0.02908 
0.02908 
0.02908 
0.02908 
0.02908 
0.02908 
0.02908 
0.02908 
0.02908 
0.02908 
0.02908 
0.02908 
0.02908 
0.02908 
0.02908 
0.02908 
0.02908 
0.02908 
0.02908 
0.02908 
0.02908 
0.02908 
0.02908 
0.02908 
0.02908 
0.02908 
0.02908 
0.02908 
0.02908 
0.02908 
0.02908 
0.02908 
0.02908 
0.02908 
0.02908 
0.02908 
0.02908 
0.02908 
0.02908 
0.02908 
0.02908 
0.02908 
0.02908 
0.02908 
0.02908 
0.02908 
0.02908 
0.02908 
0.02908 
0.02908 
0.02908 
0.02908 
0.02908 
0.02908 
0.02908 
0.02908 
0.02908 
0.02908 
0.02908 
0.02908 
0.02908 
0.02908 
0.02908 
0.02908 
0.02908 
0.02908 
0.02908 
0.02908 
0.02908 
0.02908 
0.02908 
0.02908 
0.02908 
0.02908 
0.02908 
0.02908 
0.02908 
0.02908 
0.02908 
0.02908 
0.02908 
0.02908 
0.02908 
0.02908 
0.02908 
0.02908 
0.02908 
0.02908 
0.02908 
0.02908 
0.02908 
0.02908 
0.02908 
0.02908 
0.02908 
0.02908 
0.02908 
0.02908 
0.02908 
0.02908 
0.02908 
0.02908 
0.02908 
0.02908 
0.02908 
0.02908 
0.02908 
0.02908 
0.02908 
0.02908 
0.02908 
0.02908 
0.02908 
0.02908 
0.02908 
0.02908 
0.02908 
0.02908 
0.02908 
0.02908 
0.02908 
0.02908 
0.02908 
0.02908 
0.02908 
0.02908 
0.02908 
0.02908 
0.02908 
0.02908 
0.02908 
0.02908 
0.02908 
0.02908 
0.02908 
0.02908 
0.02908 
0.02908 
0.02908 
0.02908 
0.02908 
0.02908 
0.02908 
0.02908 
0.02908 
0.02908 
0.02908 
0.02908 
0.02908 
0.02908 
0.02908 
0.02908 
0.02908 
0.02908 
0.02908 
0.02908 
0.02908 
0.02908 
0.02908 
0.02908 
0.02908 
0.02908 
0.02908 
0.02908 
0.02908 
0.02908 
0.02908 
0.02908 
0.02908 
0.02908 
0.02908 
0.02908 
0.02908 
0.02908 
0.02908 
0.02908 
0.02908 
0.02908 
0.02908 
0.02908 
0.02908 
0.02908 