/*--------------------------------*- C++ -*----------------------------------*\
| =========                 |                                                 |
| \\      /  F ield         | OpenFOAM: The Open Source CFD Toolbox           |
|  \\    /   O peration     | Version:  1.6                                   |
|   \\  /    A nd           | Web:      www.OpenFOAM.org                      |
|    \\/     M anipulation  |                                                 |
\*---------------------------------------------------------------------------*/
FoamFile
{
    version     2.0;
    format      ascii;
    class       dictionary;
    location    "system";
    object      fvSchemes;
}
// * * * * * * * * * * * * * * * * * * * * * * * * * * * * * * * * * * * * * //

ddtSchemes
{
    default         Euler;
}

gradSchemes
{
   // default         Gauss linear;
    default cellMDLimited Gauss linear 1;
   //default cellMDLimited leastSquares 1;

}

divSchemes
{
    default         none;
    
    div(tauMC)        Gauss linear;
    div(tauShear)        Gauss linear;
    div((tauShear&U))    Gauss linear;
    
    div(phiSt,c)    	Gauss vanLeer01;    
    div((U+((sL*Xi)*-grad(c)))) Gauss linear;
    div((sL*grad(b))) 	Gauss linear;
    div(U) 	    	Gauss linear;
    div((sL*-grad(c))) 	Gauss linear;
    div(phiXi,Xi)	Gauss vanLeer01;
    
    div(phi,k) 	     	Gauss upwind;
    div(phi,epsilon) 	Gauss upwind; 
    div(phi,omega) 	Gauss upwind; 
}

laplacianSchemes
{
    default         Gauss linear corrected;
}

interpolationSchemes
{

    default none;
    
    interpolate(tauMC) Gamma phi 1.0;
    interpolate(mu) Gamma phi 1.0;
    interpolate(muEff) Gamma phi 1.0;


    reconstruct(rho) Gamma 1.0;
    reconstruct(U)   GammaV 1.0;
    reconstruct(T)   Gamma 1.0;

    interpolate(rho) linear; // for CFL
    reconstruct(cSound) linear; // for CFL
    
    interpolate(p) linear; // for MinMax scheme    
    interpolate(Teff) linear; // for MinMax scheme
    interpolate(tau) linear;  // for MinMax scheme

    interpolate(-grad(c)) linear;
    interpolate(grad((1-c))) linear;
    interpolate((((p*psiu)*sL)*Xi)) linear;
    interpolate((sL*((1|Xi)-Xi))) linear;
    interpolate(((rhoUnburned*sL)*Xi)) linear;
    interpolate((laplacian(interpolate(alphaEff),c)|mag(-grad(c)))) linear;
}

snGradSchemes
{
    default         corrected;
}


// ************************************************************************* //
